Circuit: * C:\Users\Nah\Documents\GitHub\Energy\Wireless Mobile Charger\LTspice\WMPC.asc

.OP point found by inspection.
