Circuit: * C:\Users\Nah\Documents\GitHub\Energy\Wireless Mobile Charger\LTspice\WMPC.asc

.OP point found by inspection.

Date: Mon Aug 05 12:10:52 2024
Total elapsed time: 0.180 seconds.

tnom = 27
temp = 27
method = modified trap
totiter = 2242
traniter = 2242
tranpoints = 1042
accept = 1042
rejected = 0
matrix size = 4
fillins = 0
solver = Normal
Matrix Compiler1: 118 bytes object code size  0.1/0.1/[0.1]
Matrix Compiler2: 282 bytes object code size  0.1/0.2/[0.1]

